version 2
1
9
.tran 1E-8 1E-4{return}{return}{return}.kicad adjustpaths{return}.save all{return}.probe alli
1
1
V(OSC)
 
