version 2
1
9
.tran 1E-8 3E-4 0{return}{return}.kicad adjustpaths{return}.save all{return}.probe alli
2
2
I(L1)
 
1
V(OSC)
 
